* Test de modelo Hspice
.MODEL MODN2 NMOS LEVEL=49
+MOBMOD =1.2 CAPMOD=1.80e+00
+NLEV   =0.0 NOIMOD = 2.9