.SUBCKT TEST D G S B W=1e-6
M1 D1 G S1 B TEST_1 W=W L=L
XJ1 D GJ D1 TEST_2 W=W
.MODEL TEST_1 NMOS LEVEL=49 MOBMOD=1
.ENDS TEST

.SUBCKT TEST_2 D B S  W=1e-6
J1 D B S TEST_5
.MODEL TEST_5  NJF LEVEL=1
.ENDS TEST_2

.SUBCKT TEST_3 D B S W=1e-6
J1 D B S TEST_5
.MODEL TEST_5  NJF  LEVEL=1
.ENDS TEST_3

.SUBCKT TEST_4 A C AREA=1e-8 PJ=1e-6
D1 A C TEST_1 AREA=AREA PJ=PJ
.MODEL  TEST_1 D LEVEL=1 IS=1e-06
.ENDS TEST_4 
